! Users should add all user specific namelist changes below in the form of 
! namelist_var = new_namelist_value 

!O2 had to be added to the flbc_list so its mixing ratio could be fixed. This is because at 0.5% PAL of O2 and lower, oxygen begins to decrease at the surface.

&chem_surfvals_nl
 flbc_list       = 'CH3BR', 'CH3CL', 'CH4', 'O2',
         'CO2', 'H2', 'N2O', 'OCS', 'CFC11','CFC12','CFC11eq'
flbc_file = '/nobackup/pygjc/LBC_files/LBC_0.5_o2pc.nc'
/

