! Users should add all user specific namelist changes below in the form of 
! namelist_var = new_namelist_value 
&solar_data_opts
solar_irrad_data_file = "/nobackup/Alternative_Earths/stellar_files/SolarForcingCMIP6piControl_c160921_2.0Ga.nc"
/
&chem_surfvals_nl
 flbc_file              = '/nobackup/Alternative_Earths/LBC_files/LBC_4xCO2.nc'
/
