! Users should add all user specific namelist changes below in the form of
! namelist_var = new_namelist_value
&chem_inparm
srf_emis_specifier = 'CH4 -> /glade/scratch/gregcooke/LBC_files/CH4_PD_emissions.nc'
/
&chem_surfvals_nl
flbc_list              = 'CCL4', 'CF2CLBR', 'CF3BR', 'CFC11', 'CFC113', 'CFC12', 'CH3BR', 'CH3CCL3', 'CH3CL',
         'CO2', 'H2', 'HCFC22', 'N2O', 'CFC114', 'CFC115', 'HCFC141B', 'HCFC142B', 'CH2BR2', 'CHBR3',
         'H2402', 'OCS', 'CFC11eq'
/
